/*-----------------------------------------------------------------------------------------*\
| =========                 |                                                               |
| \\      /  F ield         | rhoDST: Block-coupled solver for compressible flows           |
|  \\    /   O peration     |                                                               |
|   \\  /    A nd           | Copyright (C) 2020 Design and Simulation Tech. Inc. (DSTECH)  |
|    \\/     M anipulation  | Website:  http://www.dstechno.net/                            |
\*-----------------------------------------------------------------------------------------*/
FoamFile
{
    version         2.0;
    format          ascii;
    class           volScalarField;
    object          p;
}
// *************************************************************************************** //

include         "include/freestreamConditions"

dimensions      [1 -1 -2 0 0 0 0];

internalField   uniform $pInf;

boundaryField
{
    aircraft
    {
        type            zeroGradient;
    }

     "(inlet|lowerWall|outlet|upperWall|front|back)"
    {
        type            farFieldPressureDST;
        UInf            $UInf;
        pInf            $pInf;
        TInf            $TInf;
        value           $internalField;

    }
}


// *************************************************************************************** //
