/*-----------------------------------------------------------------------------------------*\
| =========                 |                                                               |
| \\      /  F ield         | rhoDST: Block-coupled solver for compressible flows           |
|  \\    /   O peration     |                                                               |
|   \\  /    A nd           | Copyright (C) 2020 Design and Simulation Tech. Inc. (DSTECH)  |
|    \\/     M anipulation  | Website:  http://www.dstechno.net/                            |
\*-----------------------------------------------------------------------------------------*/

FoamFile
{
    version     2.0;
    format      ascii;
    class       dictionary;
    location    "system";
    object      rhoDSTDict;
}
// * * * * * * * * * * * * * * * * * * * * * * * * * * * * * * * * * * * * * //


dependentVariable W;

fluxScheme  Kurganov;//Kurganov, HLL, HLLC, HLLCP, AUSM+, AUSM+up

Jacobian    Roe;

timeIntegration
{
	timeIntegration	Dual;
	innerCorrectTurbulence true;// for dual time integration
	maxInnerIter 100;// for dual time integration
}

timeControls
{
    adjustTimeStep  false; // for transient simulations
    neighbouring	true;
    initialCo   	1;
    minCo		.1;
    maxCo  	 	10;
}

residualControls
{
    iterationStart 10; // 10 by default
    magConvergedSlope .1; // .1 by default
    minResudual 1e-5; // 1e-5 by default
}
// ************************************************************************* //
