/*-----------------------------------------------------------------------------------------*\
| =========                 |                                                               |
| \\      /  F ield         | rhoDST: Block-coupled solver for compressible flows           |
|  \\    /   O peration     |                                                               |
|   \\  /    A nd           | Copyright (C) 2020 Design and Simulation Tech. Inc. (DSTECH)  |
|    \\/     M anipulation  | Website:  http://www.dstechno.net/                            |
\*-----------------------------------------------------------------------------------------*/
FoamFile
{
    version     2.0;
    format      ascii;
    class       dictionary;
    location    "system";
    object      fvSchemes;
}
// *************************************************************************************** //

ddtSchemes
{
    default         steadyStateDST;// steadyStateDST or Euler
}

gradSchemes
{
    default          faceLimited Gauss linear 1;
    grad(nuTilda)    cellLimited Gauss linear 1;
}

divSchemes
{
    default          none;
    div(tauMC)       Gauss linear;
    div(phi,nuTilda)    Gauss linearUpwind grad(nuTilda);
}

laplacianSchemes
{
    default                     Gauss linear limited 0.33;    
}

interpolationSchemes
{
    default         linear;
    reconstruct(rho) OSPRE;
    reconstruct(U)  OSPREV;
    reconstruct(T)  OSPRE;
}

snGradSchemes
{
    default         limited 0.33;
}

wallDist
{
    //method Poisson;
    method           meshWave;
}

// *************************************************************************************** //
