/*-----------------------------------------------------------------------------------------*\
| =========                 |                                                               |
| \\      /  F ield         | rhoDST: Block-coupled solver for compressible flows           |
|  \\    /   O peration     |                                                               |
|   \\  /    A nd           | Copyright (C) 2020 Design and Simulation Tech. Inc. (DSTECH)  |
|    \\/     M anipulation  | Website:  http://www.dstechno.net/                            |
\*-----------------------------------------------------------------------------------------*/
FoamFile
{
    version     2.0;
    format      ascii;
    class       dictionary;
    location    "system";
    object      rhoDSTDict;
}
// *************************************************************************************** //

dependentVariable W; // W or deltaW

fluxScheme  HLLC; //Kurganov, HLL, HLLC, HLLCP, AUSM+, AUSM+up

Jacobian    Roe;

timeIntegration
{
	timeIntegration	Single; 
}

innerCorrectTurblulence	false;

timeControls
{
    neighbouring	true;
    initialCo   	0.1;
    minCo		0.1;
    maxCo  	 	5;
}


// *************************************************************************************** //
